MODEL        1
REMARK  Name = 10022 10021
REMARK                            x       y       z     vdW  Elec       q    Type
REMARK                         _______ _______ _______ _____ _____    ______ ____
ROOT
ATOM      1  C   LIG    1       -0.906   1.031   0.369  0.00  0.00    +0.140 C 
ATOM      2  O   LIG    1       -1.831   1.628   0.899  0.00  0.00    -0.297 OA
ATOM      3  C   LIG    1       -0.709  -0.488   0.344  0.00  0.00    +0.034 C 
ATOM      4  C   LIG    1       -1.966  -1.288   0.590  0.00  0.00    +0.020 C 
ATOM      5  C   LIG    1       -0.007  -0.645  -1.035  0.00  0.00    -0.017 C 
ATOM      6  C   LIG    1        0.554  -2.054  -1.316  0.00  0.00    +0.012 C 
ATOM      7  C   LIG    1       -0.877  -0.272  -2.252  0.00  0.00    +0.012 C 
ATOM      8  C   LIG    1        1.073   0.416  -0.675  0.00  0.00    +0.031 C 
ATOM      9  C   LIG    1        1.667  -0.150   0.644  0.00  0.00    +0.120 C 
ATOM     10  C   LIG    1        0.424  -0.712   1.376  0.00  0.00    +0.046 C 
ATOM     11  C   LIG    1        0.252   1.692  -0.351  0.00  0.00    +0.081 C 
ENDROOT
BRANCH   9  12
ATOM     12  O   LIG    1        2.319   0.833   1.426  0.00  0.00    -0.391 OA
ATOM     13  H   LIG    1        2.591   0.405   2.256  0.00  0.00    +0.210 HD
ENDBRANCH   9  12
TORSDOF 1
ENDMDL
MODEL        2
REMARK  Name = 10022 10021
REMARK                            x       y       z     vdW  Elec       q    Type
REMARK                         _______ _______ _______ _____ _____    ______ ____
ROOT
ATOM      1  C   LIG    1        0.855  -0.808   1.040  0.00  0.00    +0.140 C 
ATOM      2  O   LIG    1        1.219  -1.288   2.103  0.00  0.00    -0.297 OA
ATOM      3  C   LIG    1       -0.437  -0.017   0.804  0.00  0.00    +0.034 C 
ATOM      4  C   LIG    1       -1.518  -0.253   1.831  0.00  0.00    +0.020 C 
ATOM      5  C   LIG    1       -0.734  -0.425  -0.664  0.00  0.00    -0.017 C 
ATOM      6  C   LIG    1       -1.871   0.373  -1.339  0.00  0.00    +0.012 C 
ATOM      7  C   LIG    1       -1.079  -1.913  -0.867  0.00  0.00    +0.012 C 
ATOM      8  C   LIG    1        0.696  -0.018  -1.136  0.00  0.00    +0.031 C 
ATOM      9  C   LIG    1        0.852   1.443  -0.633  0.00  0.00    +0.120 C 
ATOM     10  C   LIG    1        0.047   1.451   0.688  0.00  0.00    +0.046 C 
ATOM     11  C   LIG    1        1.634  -0.885  -0.259  0.00  0.00    +0.081 C 
ENDROOT
BRANCH   9  12
ATOM     12  O   LIG    1        0.321   2.380  -1.555  0.00  0.00    -0.391 OA
ATOM     13  H   LIG    1        0.378   3.255  -1.136  0.00  0.00    +0.210 HD
ENDBRANCH   9  12
TORSDOF 1
ENDMDL
MODEL        3
REMARK  Name = 10022 10021
REMARK                            x       y       z     vdW  Elec       q    Type
REMARK                         _______ _______ _______ _____ _____    ______ ____
ROOT
ATOM      1  C   LIG    1       -0.282   0.033   0.285  0.00  0.00    +0.140 C 
ATOM      2  O   LIG    1       -1.077   0.839   0.807  0.00  0.00    -0.297 OA
ATOM      3  C   LIG    1        0.193  -1.067   0.897  0.00  0.00    +0.034 C 
ATOM      4  C   LIG    1       -0.147  -1.192   2.369  0.00  0.00    +0.020 C 
ATOM      5  C   LIG    1        1.174   0.446   0.474  0.00  0.00    -0.017 C 
ATOM      6  C   LIG    1        2.672  -0.018   0.344  0.00  0.00    +0.012 C 
ATOM      7  C   LIG    1        1.283   1.638   1.513  0.00  0.00    +0.012 C 
ATOM      8  C   LIG    1        0.177   0.976  -1.088  0.00  0.00    +0.031 C 
ATOM      9  C   LIG    1       -1.491   0.182  -1.352  0.00  0.00    +0.120 C 
ATOM     10  C   LIG    1       -1.277  -1.322  -0.210  0.00  0.00    +0.046 C 
ATOM     11  C   LIG    1        0.562  -0.336  -1.354  0.00  0.00    +0.081 C 
ENDROOT
BRANCH   9  12
ATOM     12  O   LIG    1       -1.787  -0.179  -2.687  0.00  0.00    -0.391 OA
ATOM     13  H   LIG    1       -2.617  -0.684  -2.671  0.00  0.00    +0.210 HD
ENDBRANCH   9  12
TORSDOF 1
ENDMDL
MODEL        4
REMARK  Name = 10022 10021
REMARK                            x       y       z     vdW  Elec       q    Type
REMARK                         _______ _______ _______ _____ _____    ______ ____
ROOT
ATOM      1  C   LIG    1       -0.919   1.273  -0.031  0.00  0.00    +0.140 C 
ATOM      2  O   LIG    1       -1.900   1.986   0.114  0.00  0.00    -0.297 OA
ATOM      3  C   LIG    1       -0.852  -0.235   0.237  0.00  0.00    +0.034 C 
ATOM      4  C   LIG    1       -2.189  -0.936   0.229  0.00  0.00    +0.020 C 
ATOM      5  C   LIG    1        0.188  -0.651  -0.838  0.00  0.00    -0.017 C 
ATOM      6  C   LIG    1       -0.279  -0.458  -2.297  0.00  0.00    +0.012 C 
ATOM      7  C   LIG    1        0.680  -2.107  -0.736  0.00  0.00    +0.012 C 
ATOM      8  C   LIG    1        1.215   0.419  -0.352  0.00  0.00    +0.031 C 
ATOM      9  C   LIG    1        1.349   0.141   1.170  0.00  0.00    +0.120 C 
ATOM     10  C   LIG    1       -0.067  -0.336   1.569  0.00  0.00    +0.046 C 
ATOM     11  C   LIG    1        0.445   1.756  -0.487  0.00  0.00    +0.081 C 
ENDROOT
BRANCH   9  12
ATOM     12  O   LIG    1        2.317  -0.859   1.442  0.00  0.00    -0.391 OA
ATOM     13  H   LIG    1        2.282  -1.035   2.397  0.00  0.00    +0.210 HD
ENDBRANCH   9  12
TORSDOF 1
ENDMDL
MODEL        5
REMARK  Name = 10022 10021
REMARK                            x       y       z     vdW  Elec       q    Type
REMARK                         _______ _______ _______ _____ _____    ______ ____
ROOT
ATOM      1  C   LIG    1        0.424  -1.223  -0.588  0.00  0.00    +0.140 C 
ATOM      2  O   LIG    1        0.819  -2.371  -0.719  0.00  0.00    -0.297 OA
ATOM      3  C   LIG    1       -0.108  -0.593   0.704  0.00  0.00    +0.034 C 
ATOM      4  C   LIG    1       -0.591  -1.586   1.734  0.00  0.00    +0.020 C 
ATOM      5  C   LIG    1       -1.147   0.400   0.110  0.00  0.00    -0.017 C 
ATOM      6  C   LIG    1       -2.341  -0.261  -0.606  0.00  0.00    +0.012 C 
ATOM      7  C   LIG    1       -1.746   1.392   1.130  0.00  0.00    +0.012 C 
ATOM      8  C   LIG    1       -0.093   1.024  -0.850  0.00  0.00    +0.031 C 
ATOM      9  C   LIG    1        1.030   1.462   0.130  0.00  0.00    +0.120 C 
ATOM     10  C   LIG    1        1.064   0.310   1.162  0.00  0.00    +0.046 C 
ATOM     11  C   LIG    1        0.410  -0.181  -1.688  0.00  0.00    +0.081 C 
ENDROOT
BRANCH   9  12
ATOM     12  O   LIG    1        2.288   1.620  -0.502  0.00  0.00    -0.391 OA
ATOM     13  H   LIG    1        2.935   1.820   0.196  0.00  0.00    +0.210 HD
ENDBRANCH   9  12
TORSDOF 1
ENDMDL
MODEL        6
REMARK  Name = 10022 10021
REMARK                            x       y       z     vdW  Elec       q    Type
REMARK                         _______ _______ _______ _____ _____    ______ ____
ROOT
ATOM      1  C   LIG    1        0.219  -0.117  -0.085  0.00  0.00    +0.140 C 
ATOM      2  O   LIG    1        1.310   0.416  -0.374  0.00  0.00    -0.297 OA
ATOM      3  C   LIG    1       -0.352  -1.096  -0.812  0.00  0.00    +0.034 C 
ATOM      4  C   LIG    1        0.305  -1.399  -2.144  0.00  0.00    +0.020 C 
ATOM      5  C   LIG    1       -0.964   0.636  -0.660  0.00  0.00    -0.017 C 
ATOM      6  C   LIG    1       -2.513   0.580  -0.932  0.00  0.00    +0.012 C 
ATOM      7  C   LIG    1       -0.485   1.741  -1.693  0.00  0.00    +0.012 C 
ATOM      8  C   LIG    1       -0.281   0.994   1.110  0.00  0.00    +0.031 C 
ATOM      9  C   LIG    1        0.926  -0.224   1.836  0.00  0.00    +0.120 C 
ATOM     10  C   LIG    1        0.665  -1.657   0.628  0.00  0.00    +0.046 C 
ATOM     11  C   LIG    1       -1.092  -0.127   1.267  0.00  0.00    +0.081 C 
ENDROOT
BRANCH   9  12
ATOM     12  O   LIG    1        2.259   0.253   1.895  0.00  0.00    -0.391 OA
ATOM     13  H   LIG    1        2.273   0.980   2.540  0.00  0.00    +0.210 HD
ENDBRANCH   9  12
TORSDOF 1
ENDMDL
MODEL        7
REMARK  Name = 29920 29919
REMARK                            x       y       z     vdW  Elec       q    Type
REMARK                         _______ _______ _______ _____ _____    ______ ____
ROOT
ATOM      1  C   LIG    1        2.290   0.713   1.508  0.00  0.00    +0.072 A 
ATOM      2  N   LIG    1        3.099   1.635   0.938  0.00  0.00    -0.254 NA
ATOM      3  C   LIG    1        4.198   1.986   1.643  0.00  0.00    +0.126 A 
ATOM      4  C   LIG    1        4.524   1.462   2.883  0.00  0.00    +0.077 A 
ATOM      5  C   LIG    1        3.668   0.516   3.436  0.00  0.00    +0.018 A 
ATOM      6  C   LIG    1        2.528   0.129   2.741  0.00  0.00    +0.029 A 
ENDROOT
BRANCH   1  11
ATOM      7  C   LIG    1       -1.258   0.207   0.453  0.00  0.00    +0.020 A 
ATOM      8  C   LIG    1       -1.024  -0.330  -0.803  0.00  0.00    +0.111 A 
ATOM      9  N   LIG    1        0.208  -0.536  -1.320  0.00  0.00    -0.263 NA
ATOM     10  C   LIG    1        1.254  -0.185  -0.539  0.00  0.00    +0.120 A 
ATOM     11  C   LIG    1        1.126   0.359   0.729  0.00  0.00    +0.018 A 
ATOM     12  C   LIG    1       -0.157   0.556   1.227  0.00  0.00    +0.013 A 
ENDBRANCH   1  11
BRANCH   4  13
ATOM     13  C   LIG    1        5.723   1.887   3.584  0.00  0.00    +0.338 C 
ATOM     14  O   LIG    1        6.092   1.476   4.690  0.00  0.00    -0.245 OA
BRANCH  13  15
ATOM     15  O   LIG    1        6.434   2.817   2.887  0.00  0.00    -0.477 OA
ATOM     16  H   LIG    1        7.246   3.111   3.353  0.00  0.00    +0.295 HD
ENDBRANCH  13  15
ENDBRANCH   4  13
TORSDOF 3
ENDMDL
MODEL        8
REMARK  Name = 29920 29919
REMARK                            x       y       z     vdW  Elec       q    Type
REMARK                         _______ _______ _______ _____ _____    ______ ____
ROOT
ATOM      1  C   LIG    1        2.290   0.713   1.508  0.00  0.00    +0.072 A 
ATOM      2  N   LIG    1        3.099   1.635   0.938  0.00  0.00    -0.254 NA
ATOM      3  C   LIG    1        4.198   1.986   1.643  0.00  0.00    +0.126 A 
ATOM      4  C   LIG    1        4.524   1.462   2.883  0.00  0.00    +0.077 A 
ATOM      5  C   LIG    1        3.668   0.516   3.436  0.00  0.00    +0.018 A 
ATOM      6  C   LIG    1        2.528   0.129   2.741  0.00  0.00    +0.029 A 
ENDROOT
BRANCH   1  11
ATOM      7  C   LIG    1        0.115  -0.520  -1.268  0.00  0.00    +0.020 A 
ATOM      8  C   LIG    1       -1.119  -0.286  -0.682  0.00  0.00    +0.111 A 
ATOM      9  N   LIG    1       -1.282   0.244   0.551  0.00  0.00    -0.263 NA
ATOM     10  C   LIG    1       -0.152   0.554   1.226  0.00  0.00    +0.120 A 
ATOM     11  C   LIG    1        1.126   0.359   0.729  0.00  0.00    +0.018 A 
ATOM     12  C   LIG    1        1.254  -0.188  -0.543  0.00  0.00    +0.013 A 
ENDBRANCH   1  11
BRANCH   4  13
ATOM     13  C   LIG    1        5.723   1.887   3.584  0.00  0.00    +0.338 C 
ATOM     14  O   LIG    1        6.092   1.476   4.690  0.00  0.00    -0.245 OA
BRANCH  13  15
ATOM     15  O   LIG    1        6.434   2.817   2.887  0.00  0.00    -0.477 OA
ATOM     16  H   LIG    1        7.246   3.111   3.353  0.00  0.00    +0.295 HD
ENDBRANCH  13  15
ENDBRANCH   4  13
TORSDOF 3
ENDMDL
MODEL        9
REMARK  Name = 29920 29919
REMARK                            x       y       z     vdW  Elec       q    Type
REMARK                         _______ _______ _______ _____ _____    ______ ____
ROOT
ATOM      1  C   LIG    1        2.290   0.713   1.508  0.00  0.00    +0.072 A 
ATOM      2  N   LIG    1        3.099   1.635   0.938  0.00  0.00    -0.254 NA
ATOM      3  C   LIG    1        4.198   1.986   1.643  0.00  0.00    +0.126 A 
ATOM      4  C   LIG    1        4.524   1.462   2.883  0.00  0.00    +0.077 A 
ATOM      5  C   LIG    1        3.668   0.516   3.436  0.00  0.00    +0.018 A 
ATOM      6  C   LIG    1        2.528   0.129   2.741  0.00  0.00    +0.029 A 
ENDROOT
BRANCH   1  11
ATOM      7  C   LIG    1       -0.927   0.947  -0.376  0.00  0.00    +0.020 A 
ATOM      8  C   LIG    1       -1.046  -0.383  -0.747  0.00  0.00    +0.111 A 
ATOM      9  N   LIG    1       -0.149  -1.342  -0.422  0.00  0.00    -0.263 NA
ATOM     10  C   LIG    1        0.916  -0.944   0.309  0.00  0.00    +0.120 A 
ATOM     11  C   LIG    1        1.126   0.359   0.729  0.00  0.00    +0.018 A 
ATOM     12  C   LIG    1        0.182   1.317   0.375  0.00  0.00    +0.013 A 
ENDBRANCH   1  11
BRANCH   4  13
ATOM     13  C   LIG    1        5.723   1.887   3.584  0.00  0.00    +0.338 C 
ATOM     14  O   LIG    1        6.539   2.719   3.171  0.00  0.00    -0.245 OA
BRANCH  13  15
ATOM     15  O   LIG    1        5.875   1.264   4.785  0.00  0.00    -0.477 OA
ATOM     16  H   LIG    1        6.682   1.544   5.267  0.00  0.00    +0.295 HD
ENDBRANCH  13  15
ENDBRANCH   4  13
TORSDOF 3
ENDMDL
MODEL       10
REMARK  Name = 29920 29919
REMARK                            x       y       z     vdW  Elec       q    Type
REMARK                         _______ _______ _______ _____ _____    ______ ____
ROOT
ATOM      1  C   LIG    1        2.290   0.713   1.508  0.00  0.00    +0.072 A 
ATOM      2  N   LIG    1        3.099   1.635   0.938  0.00  0.00    -0.254 NA
ATOM      3  C   LIG    1        4.198   1.986   1.643  0.00  0.00    +0.126 A 
ATOM      4  C   LIG    1        4.524   1.462   2.883  0.00  0.00    +0.077 A 
ATOM      5  C   LIG    1        3.668   0.516   3.436  0.00  0.00    +0.018 A 
ATOM      6  C   LIG    1        2.528   0.129   2.741  0.00  0.00    +0.029 A 
ENDROOT
BRANCH   1  11
ATOM      7  C   LIG    1       -0.216  -1.259  -0.439  0.00  0.00    +0.020 A 
ATOM      8  C   LIG    1       -1.097  -0.233  -0.738  0.00  0.00    +0.111 A 
ATOM      9  N   LIG    1       -0.925   1.050  -0.347  0.00  0.00    -0.263 NA
ATOM     10  C   LIG    1        0.185   1.313   0.378  0.00  0.00    +0.120 A 
ATOM     11  C   LIG    1        1.126   0.359   0.729  0.00  0.00    +0.018 A 
ATOM     12  C   LIG    1        0.915  -0.949   0.308  0.00  0.00    +0.013 A 
ENDBRANCH   1  11
BRANCH   4  13
ATOM     13  C   LIG    1        5.723   1.887   3.584  0.00  0.00    +0.338 C 
ATOM     14  O   LIG    1        6.539   2.719   3.171  0.00  0.00    -0.245 OA
BRANCH  13  15
ATOM     15  O   LIG    1        5.875   1.264   4.785  0.00  0.00    -0.477 OA
ATOM     16  H   LIG    1        6.682   1.544   5.267  0.00  0.00    +0.295 HD
ENDBRANCH  13  15
ENDBRANCH   4  13
TORSDOF 3
ENDMDL
MODEL       11
REMARK  Name = 29920 29919
REMARK                            x       y       z     vdW  Elec       q    Type
REMARK                         _______ _______ _______ _____ _____    ______ ____
ROOT
ATOM      1  C   LIG    1        2.290   0.713   1.508  0.00  0.00    +0.072 A 
ATOM      2  N   LIG    1        3.099   1.635   0.938  0.00  0.00    -0.254 NA
ATOM      3  C   LIG    1        4.198   1.986   1.643  0.00  0.00    +0.126 A 
ATOM      4  C   LIG    1        4.524   1.462   2.883  0.00  0.00    +0.077 A 
ATOM      5  C   LIG    1        3.668   0.516   3.436  0.00  0.00    +0.018 A 
ATOM      6  C   LIG    1        2.528   0.129   2.741  0.00  0.00    +0.029 A 
ENDROOT
BRANCH   1  11
ATOM      7  C   LIG    1       -0.586   0.907  -0.869  0.00  0.00    +0.020 A 
ATOM      8  C   LIG    1       -1.069  -0.382  -0.713  0.00  0.00    +0.111 A 
ATOM      9  N   LIG    1       -0.519  -1.301   0.112  0.00  0.00    -0.263 NA
ATOM     10  C   LIG    1        0.567  -0.906   0.813  0.00  0.00    +0.120 A 
ATOM     11  C   LIG    1        1.126   0.359   0.729  0.00  0.00    +0.018 A 
ATOM     12  C   LIG    1        0.533   1.277  -0.130  0.00  0.00    +0.013 A 
ENDBRANCH   1  11
BRANCH   4  13
ATOM     13  C   LIG    1        5.723   1.887   3.584  0.00  0.00    +0.338 C 
ATOM     14  O   LIG    1        5.975   3.045   3.939  0.00  0.00    -0.245 OA
BRANCH  13  15
ATOM     15  O   LIG    1        6.580   0.857   3.827  0.00  0.00    -0.477 OA
ATOM     16  H   LIG    1        7.393   1.134   4.300  0.00  0.00    +0.295 HD
ENDBRANCH  13  15
ENDBRANCH   4  13
TORSDOF 3
ENDMDL
MODEL       12
REMARK  Name = 29920 29919
REMARK                            x       y       z     vdW  Elec       q    Type
REMARK                         _______ _______ _______ _____ _____    ______ ____
ROOT
ATOM      1  C   LIG    1        2.290   0.713   1.508  0.00  0.00    +0.072 A 
ATOM      2  N   LIG    1        3.099   1.635   0.938  0.00  0.00    -0.254 NA
ATOM      3  C   LIG    1        4.198   1.986   1.643  0.00  0.00    +0.126 A 
ATOM      4  C   LIG    1        4.524   1.462   2.883  0.00  0.00    +0.077 A 
ATOM      5  C   LIG    1        3.668   0.516   3.436  0.00  0.00    +0.018 A 
ATOM      6  C   LIG    1        2.528   0.129   2.741  0.00  0.00    +0.029 A 
ENDROOT
BRANCH   1  11
ATOM      7  C   LIG    1        0.015   0.061  -1.383  0.00  0.00    +0.020 A 
ATOM      8  C   LIG    1       -1.111  -0.326  -0.675  0.00  0.00    +0.111 A 
ATOM      9  N   LIG    1       -1.173  -0.386   0.674  0.00  0.00    -0.263 NA
ATOM     10  C   LIG    1       -0.050  -0.041   1.343  0.00  0.00    +0.120 A 
ATOM     11  C   LIG    1        1.126   0.359   0.729  0.00  0.00    +0.018 A 
ATOM     12  C   LIG    1        1.151   0.408  -0.661  0.00  0.00    +0.013 A 
ENDBRANCH   1  11
BRANCH   4  13
ATOM     13  C   LIG    1        5.723   1.887   3.584  0.00  0.00    +0.338 C 
ATOM     14  O   LIG    1        6.880   1.772   3.163  0.00  0.00    -0.245 OA
BRANCH  13  15
ATOM     15  O   LIG    1        5.449   2.447   4.795  0.00  0.00    -0.477 OA
ATOM     16  H   LIG    1        6.253   2.738   5.277  0.00  0.00    +0.295 HD
ENDBRANCH  13  15
ENDBRANCH   4  13
TORSDOF 3
ENDMDL
MODEL       13
REMARK  Name = 29920 29919
REMARK                            x       y       z     vdW  Elec       q    Type
REMARK                         _______ _______ _______ _____ _____    ______ ____
ROOT
ATOM      1  C   LIG    1        2.290   0.713   1.508  0.00  0.00    +0.072 A 
ATOM      2  N   LIG    1        3.099   1.635   0.938  0.00  0.00    -0.254 NA
ATOM      3  C   LIG    1        4.198   1.986   1.643  0.00  0.00    +0.126 A 
ATOM      4  C   LIG    1        4.524   1.462   2.883  0.00  0.00    +0.077 A 
ATOM      5  C   LIG    1        3.668   0.516   3.436  0.00  0.00    +0.018 A 
ATOM      6  C   LIG    1        2.528   0.129   2.741  0.00  0.00    +0.029 A 
ENDROOT
BRANCH   1  11
ATOM      7  C   LIG    1       -0.557  -1.220   0.053  0.00  0.00    +0.020 A 
ATOM      8  C   LIG    1       -1.074  -0.234  -0.772  0.00  0.00    +0.111 A 
ATOM      9  N   LIG    1       -0.556   1.010  -0.881  0.00  0.00    -0.263 NA
ATOM     10  C   LIG    1        0.534   1.275  -0.126  0.00  0.00    +0.120 A 
ATOM     11  C   LIG    1        1.126   0.359   0.729  0.00  0.00    +0.018 A 
ATOM     12  C   LIG    1        0.564  -0.910   0.814  0.00  0.00    +0.013 A 
ENDBRANCH   1  11
BRANCH   4  13
ATOM     13  C   LIG    1        5.723   1.887   3.584  0.00  0.00    +0.338 C 
ATOM     14  O   LIG    1        5.975   3.045   3.939  0.00  0.00    -0.245 OA
BRANCH  13  15
ATOM     15  O   LIG    1        6.580   0.857   3.827  0.00  0.00    -0.477 OA
ATOM     16  H   LIG    1        7.393   1.134   4.300  0.00  0.00    +0.295 HD
ENDBRANCH  13  15
ENDBRANCH   4  13
TORSDOF 3
ENDMDL
MODEL       14
REMARK  Name = 29920 29919
REMARK                            x       y       z     vdW  Elec       q    Type
REMARK                         _______ _______ _______ _____ _____    ______ ____
ROOT
ATOM      1  C   LIG    1        2.290   0.713   1.508  0.00  0.00    +0.072 A 
ATOM      2  N   LIG    1        3.099   1.635   0.938  0.00  0.00    -0.254 NA
ATOM      3  C   LIG    1        4.198   1.986   1.643  0.00  0.00    +0.126 A 
ATOM      4  C   LIG    1        4.524   1.462   2.883  0.00  0.00    +0.077 A 
ATOM      5  C   LIG    1        3.668   0.516   3.436  0.00  0.00    +0.018 A 
ATOM      6  C   LIG    1        2.528   0.129   2.741  0.00  0.00    +0.029 A 
ENDROOT
BRANCH   1  11
ATOM      7  C   LIG    1       -1.159  -0.373   0.568  0.00  0.00    +0.020 A 
ATOM      8  C   LIG    1       -1.032  -0.290  -0.809  0.00  0.00    +0.111 A 
ATOM      9  N   LIG    1        0.099   0.094  -1.443  0.00  0.00    -0.263 NA
ATOM     10  C   LIG    1        1.151   0.410  -0.656  0.00  0.00    +0.120 A 
ATOM     11  C   LIG    1        1.126   0.359   0.729  0.00  0.00    +0.018 A 
ATOM     12  C   LIG    1       -0.054  -0.041   1.345  0.00  0.00    +0.013 A 
ENDBRANCH   1  11
BRANCH   4  13
ATOM     13  C   LIG    1        5.723   1.887   3.584  0.00  0.00    +0.338 C 
ATOM     14  O   LIG    1        6.880   1.772   3.163  0.00  0.00    -0.245 OA
BRANCH  13  15
ATOM     15  O   LIG    1        5.449   2.447   4.795  0.00  0.00    -0.477 OA
ATOM     16  H   LIG    1        6.253   2.738   5.277  0.00  0.00    +0.295 HD
ENDBRANCH  13  15
ENDBRANCH   4  13
TORSDOF 3
ENDMDL
MODEL       15
REMARK  Name = 29946 29945
REMARK                            x       y       z     vdW  Elec       q    Type
REMARK                         _______ _______ _______ _____ _____    ______ ____
ROOT
ATOM      1  C   LIG    1       -0.241   0.583  -1.237  0.00  0.00    +0.070 A 
ATOM      2  C   LIG    1       -1.093  -0.361  -0.686  0.00  0.00    +0.129 A 
ATOM      3  N   LIG    1       -0.894  -0.951   0.513  0.00  0.00    -0.261 NA
ATOM      4  C   LIG    1        0.213  -0.575   1.192  0.00  0.00    +0.119 A 
ATOM      5  C   LIG    1        1.126   0.359   0.729  0.00  0.00    +0.003 A 
ATOM      6  C   LIG    1        0.888   0.945  -0.510  0.00  0.00    +0.030 A 
ENDROOT
BRANCH   5   7
ATOM      7  C   LIG    1        2.291   0.713   1.507  0.00  0.00    +0.002 A 
ATOM      8  C   LIG    1        3.467   1.109   0.893  0.00  0.00    +0.119 A 
ATOM      9  N   LIG    1        4.592   1.451   1.561  0.00  0.00    -0.263 NA
ATOM     10  C   LIG    1        4.530   1.392   2.910  0.00  0.00    +0.111 A 
ATOM     11  C   LIG    1        3.403   1.009   3.619  0.00  0.00    +0.020 A 
ATOM     12  C   LIG    1        2.266   0.664   2.897  0.00  0.00    +0.011 A 
ENDBRANCH   5   7
BRANCH   1  13
ATOM     13  C   LIG    1       -0.514   1.165  -2.511  0.00  0.00    +0.101 C 
ATOM     14  N   LIG    1       -0.736   1.639  -3.546  0.00  0.00    -0.191 NA
ENDBRANCH   1  13
TORSDOF 2
ENDMDL
MODEL       16
REMARK  Name = 29946 29945
REMARK                            x       y       z     vdW  Elec       q    Type
REMARK                         _______ _______ _______ _____ _____    ______ ____
ROOT
ATOM      1  C   LIG    1       -0.241   0.583  -1.237  0.00  0.00    +0.070 A 
ATOM      2  C   LIG    1       -1.093  -0.361  -0.686  0.00  0.00    +0.129 A 
ATOM      3  N   LIG    1       -0.894  -0.951   0.513  0.00  0.00    -0.261 NA
ATOM      4  C   LIG    1        0.213  -0.575   1.192  0.00  0.00    +0.119 A 
ATOM      5  C   LIG    1        1.126   0.359   0.729  0.00  0.00    +0.003 A 
ATOM      6  C   LIG    1        0.888   0.945  -0.510  0.00  0.00    +0.030 A 
ENDROOT
BRANCH   5   7
ATOM      7  C   LIG    1        2.291   0.713   1.507  0.00  0.00    +0.002 A 
ATOM      8  C   LIG    1        2.265   0.666   2.892  0.00  0.00    +0.119 A 
ATOM      9  N   LIG    1        3.317   0.984   3.679  0.00  0.00    -0.263 NA
ATOM     10  C   LIG    1        4.448   1.367   3.044  0.00  0.00    +0.111 A 
ATOM     11  C   LIG    1        4.575   1.447   1.667  0.00  0.00    +0.020 A 
ATOM     12  C   LIG    1        3.471   1.112   0.891  0.00  0.00    +0.011 A 
ENDBRANCH   5   7
BRANCH   1  13
ATOM     13  C   LIG    1       -0.514   1.165  -2.511  0.00  0.00    +0.101 C 
ATOM     14  N   LIG    1       -0.736   1.639  -3.546  0.00  0.00    -0.191 NA
ENDBRANCH   1  13
TORSDOF 2
ENDMDL
MODEL       17
REMARK  Name = 29946 29945
REMARK                            x       y       z     vdW  Elec       q    Type
REMARK                         _______ _______ _______ _____ _____    ______ ____
ROOT
ATOM      1  C   LIG    1       -0.241   0.583  -1.237  0.00  0.00    +0.070 A 
ATOM      2  C   LIG    1       -1.093  -0.361  -0.686  0.00  0.00    +0.129 A 
ATOM      3  N   LIG    1       -0.894  -0.951   0.513  0.00  0.00    -0.261 NA
ATOM      4  C   LIG    1        0.213  -0.575   1.192  0.00  0.00    +0.119 A 
ATOM      5  C   LIG    1        1.126   0.359   0.729  0.00  0.00    +0.003 A 
ATOM      6  C   LIG    1        0.888   0.945  -0.510  0.00  0.00    +0.030 A 
ENDROOT
BRANCH   5   7
ATOM      7  C   LIG    1        2.291   0.713   1.507  0.00  0.00    +0.002 A 
ATOM      8  C   LIG    1        2.881  -0.202   2.364  0.00  0.00    +0.119 A 
ATOM      9  N   LIG    1        3.969   0.064   3.121  0.00  0.00    -0.263 NA
ATOM     10  C   LIG    1        4.488   1.308   3.011  0.00  0.00    +0.111 A 
ATOM     11  C   LIG    1        3.973   2.292   2.184  0.00  0.00    +0.020 A 
ATOM     12  C   LIG    1        2.853   1.981   1.421  0.00  0.00    +0.011 A 
ENDBRANCH   5   7
BRANCH   1  13
ATOM     13  C   LIG    1       -0.514   1.165  -2.511  0.00  0.00    +0.101 C 
ATOM     14  N   LIG    1       -0.736   1.639  -3.546  0.00  0.00    -0.191 NA
ENDBRANCH   1  13
TORSDOF 2
ENDMDL
MODEL       18
REMARK  Name = ZINC39580543
REMARK                            x       y       z     vdW  Elec       q    Type
REMARK                         _______ _______ _______ _____ _____    ______ ____
ROOT
ATOM      1  C   LIG    1        5.786  -1.866   1.477  0.00  0.00    +0.161 C 
ATOM      2  N   LIG    1        6.325  -2.162   0.291  0.00  0.00    -0.235 N 
ATOM      3  H   LIG    1        5.862  -1.904  -0.521  0.00  0.00    +0.265 HD
ATOM      4  C   LIG    1        7.497  -2.812   0.205  0.00  0.00    +0.411 C 
ATOM      5  N   LIG    1        8.091  -3.477   1.160  0.00  0.00    -0.078 NA
ATOM      6  C   LIG    1        7.438  -3.607   2.462  0.00  0.00    +0.358 C 
ATOM      7  N   LIG    1        8.347  -3.541   3.604  0.00  0.00    -0.224 NA
ATOM      8  C   LIG    1        7.926  -2.513   4.327  0.00  0.00    +0.220 C 
ATOM      9  N   LIG    1        6.863  -1.884   3.785  0.00  0.00    -0.231 NA
ATOM     10  C   LIG    1        6.608  -2.325   2.613  0.00  0.00    +0.150 C 
ENDROOT
BRANCH   4  11
ATOM     11  N   LIG    1        8.139  -2.772  -1.016  0.00  0.00    -0.095 NA
ATOM     12  H   LIG    1        8.989  -3.225  -1.132  0.00  0.00    +0.290 HD
ENDBRANCH   4  11
BRANCH   1  13
ATOM     13  S   LIG    1        4.257  -1.011   1.666  0.00  0.00    -0.085 S 
BRANCH  13  14
ATOM     14  C   LIG    1        3.711  -0.707  -0.038  0.00  0.00    +0.112 C 
BRANCH  14  18
ATOM     15  C   LIG    1       -0.017   1.378   0.010  0.00  0.00    +0.000 A 
ATOM     16  C   LIG    1        1.171   2.086   0.002  0.00  0.00    +0.000 A 
ATOM     17  C   LIG    1        2.377   1.411  -0.013  0.00  0.00    +0.004 A 
ATOM     18  C   LIG    1        2.396   0.029  -0.020  0.00  0.00    -0.037 A 
ATOM     19  C   LIG    1        1.208  -0.679  -0.012  0.00  0.00    +0.004 A 
ATOM     20  C   LIG    1        0.002  -0.004   0.002  0.00  0.00    +0.000 A 
ENDBRANCH  14  18
ENDBRANCH  13  14
ENDBRANCH   1  13
TORSDOF 4
ENDMDL
MODEL       19
REMARK  Name = 29946 29945
REMARK                            x       y       z     vdW  Elec       q    Type
REMARK                         _______ _______ _______ _____ _____    ______ ____
ROOT
ATOM      1  C   LIG    1       -0.241   0.583  -1.237  0.00  0.00    +0.070 A 
ATOM      2  C   LIG    1       -1.093  -0.361  -0.686  0.00  0.00    +0.129 A 
ATOM      3  N   LIG    1       -0.894  -0.951   0.513  0.00  0.00    -0.261 NA
ATOM      4  C   LIG    1        0.213  -0.575   1.192  0.00  0.00    +0.119 A 
ATOM      5  C   LIG    1        1.126   0.359   0.729  0.00  0.00    +0.003 A 
ATOM      6  C   LIG    1        0.888   0.945  -0.510  0.00  0.00    +0.030 A 
ENDROOT
BRANCH   5   7
ATOM      7  C   LIG    1        2.291   0.713   1.507  0.00  0.00    +0.002 A 
ATOM      8  C   LIG    1        2.852   1.976   1.420  0.00  0.00    +0.119 A 
ATOM      9  N   LIG    1        3.940   2.371   2.118  0.00  0.00    -0.263 NA
ATOM     10  C   LIG    1        4.490   1.452   2.943  0.00  0.00    +0.111 A 
ATOM     11  C   LIG    1        4.005   0.164   3.102  0.00  0.00    +0.020 A 
ATOM     12  C   LIG    1        2.884  -0.205   2.366  0.00  0.00    +0.011 A 
ENDBRANCH   5   7
BRANCH   1  13
ATOM     13  C   LIG    1       -0.514   1.165  -2.511  0.00  0.00    +0.101 C 
ATOM     14  N   LIG    1       -0.736   1.639  -3.546  0.00  0.00    -0.191 NA
ENDBRANCH   1  13
TORSDOF 2
ENDMDL
